Header
  CHECK KEYWORDS Warn
  Mesh DB "." "."
  Include Path ""
  Results Directory ""
End

Simulation
  Max Output Level = 5
  Coordinate System = Cartesian
  Coordinate Mapping(3) = 1 2 3
  Simulation Type = Steady state
  Steady State Max Iterations = 100
  Output Intervals = 0
  Timestepping Method = BDF
  BDF Order = 1
  Solver Input File = case.sif
  Post File = case.ep
End

Constants
  Gravity(4) = 0 -1 0 9.82
  Stefan Boltzmann = 5.67e-08
  Permittivity of Vacuum = 8.8542e-12
  Boltzmann Constant = 1.3807e-23
  Unit Charge = 1.602e-19
End

Body 1
  Target Bodies(1) = 1
  Name = "Body 1"
  Equation = 1
  Material = 1
End

Body 2
  Target Bodies(1) = 2
  Name = "Body 2"
  Equation = 2
  Material = 2
End

Solver 3
  Equation = Mesh Update
  Procedure = "MeshSolve" "MeshSolver"
  Variable = -dofs 2 Mesh Update
  Exec Solver = Always
  Stabilize = True
  Bubbles = False
  Lumped Mass Matrix = False
  Optimize Bandwidth = True
  Steady State Convergence Tolerance = 1.0e-5
  Nonlinear System Convergence Tolerance = 1.0e-7
  Nonlinear System Max Iterations = 20
  Nonlinear System Newton After Iterations = 3
  Nonlinear System Newton After Tolerance = 1.0e-3
  Nonlinear System Relaxation Factor = 1
  Linear System Solver = Iterative
  Linear System Iterative Method = BiCGStab
  Linear System Max Iterations = 500
  Linear System Convergence Tolerance = 1.0e-10
  Linear System Preconditioning = ILU0
  Linear System ILUT Tolerance = 1.0e-3
  Linear System Abort Not Converged = False
  Linear System Residual Output = 1
  Linear System Precondition Recompute = 1
End

Solver 1
  Equation = Navier-Stokes
  Variable = Flow Solution[Velocity:2 Pressure:1]
  Procedure = "FlowSolve" "FlowSolver"
  Exec Solver = Always
  Stabilize = True
  Bubbles = False
  Lumped Mass Matrix = False
  Optimize Bandwidth = True
  Steady State Convergence Tolerance = 1.0e-5
  Nonlinear System Convergence Tolerance = 1.0e-7
  Nonlinear System Max Iterations = 1
  Nonlinear System Newton After Iterations = 3
  Nonlinear System Newton After Tolerance = 1.0e-3
  Nonlinear System Relaxation Factor = 0.5
  Linear System Solver = Iterative
  Linear System Iterative Method = BiCGStab
  Linear System Max Iterations = 500
  Linear System Convergence Tolerance = 1.0e-10
  Linear System Preconditioning = ILU0
  Linear System ILUT Tolerance = 1.0e-3
  Linear System Abort Not Converged = False
  Linear System Residual Output = 1
  Linear System Precondition Recompute = 1
End

Solver 2
  Equation = Nonlinear elasticity
  Variable = -dofs 2 Displacement
  Procedure = "ElasticSolve" "ElasticSolver"
  Exec Solver = Always
  Stabilize = True
  Bubbles = False
  Lumped Mass Matrix = False
  Optimize Bandwidth = True
  Steady State Convergence Tolerance = 1.0e-5
  Nonlinear System Convergence Tolerance = 1.0e-7
  Nonlinear System Max Iterations = 1
  Nonlinear System Newton After Iterations = 3
  Nonlinear System Newton After Tolerance = 1.0e-3
  Nonlinear System Relaxation Factor = 0.5
  Linear System Solver = Iterative
  Linear System Iterative Method = BiCGStab
  Linear System Max Iterations = 500
  Linear System Convergence Tolerance = 1.0e-10
  Linear System Preconditioning = ILU0
  Linear System ILUT Tolerance = 1.0e-3
  Linear System Abort Not Converged = False
  Linear System Residual Output = 1
  Linear System Precondition Recompute = 1
End

Equation 1
  Name = "Flow and mesh deform"
  Active Solvers(2) = 3 1
End

Equation 2
  Name = "Elasticity"
  Active Solvers(1) = 2
End

Material 1
  Name = "Ideal fluid"
  Viscosity = 0.1
  Mesh Elastic Modulus = 1.0
  Mesh Poisson ratio = 0.3
  Density = 1.0
End

Material 2
  Name = "Ideal structure"
  Poisson ratio = 0.3
  Youngs modulus = 1.0e3
  Density = 1.0e3
End

Boundary Condition 1
  Target Boundaries(1) = 7 
  Name = "Inflow"
  Velocity 1 = Variable Coordinate 2;  Real MATC "tx*(2-tx)"
  Velocity 2 = 0.0
  Mesh Update 1 = 0.0
End

Boundary Condition 2
  Target Boundaries(1) = 5 
  Name = "Outflow"
  Velocity 2 = 0.0
  Mesh Update 1 = 0.0
End

Boundary Condition 3
  Target Boundaries(3) = 1 4 6 
  Name = "Walls"
  Mesh Update 1 = 0.0
  Mesh Update 2 = 0.0
  Noslip wall BC = True
End

Boundary Condition 4
  Target Boundaries(1) = 8 
  Name = "Base"
  Displacement 1 = 0.0
  Displacement 2 = 0.0
End

Boundary Condition 5
  Target Boundaries(2) = 2 3 
  Name = "FSI"
  Fsi BC = True
  Mesh Update 1 = Equals Displacement 1
  Mesh Update 2 = Equals Displacement 2
  Noslip wall BC = True
!  Force 1 = 0.0
!  Force 2 = 0.0
!  Force 3 = 0.0
  Force 1 = Variable Time
    Real Procedure "LoadFunctionLibrary" "LoadXDirection"
  Force 2 = Variable Time
    Real Procedure "LoadFunctionLibrary" "LoadYDirection"
  Force 3 = Variable Time
    Real Procedure "LoadFunctionLibrary" "LoadZDirection"
End
