Header
  CHECK KEYWORDS Warn
  Mesh DB "./Elmer/Modin/" "sss"
  Include Path ""
  Results Directory "./Elmer/Modout"
End

Simulation
  Max Output Level = 5
  Coordinate System = Cartesian
  Coordinate Mapping(3) = 1 2 3
!  Simulation Type = Steady state
!  Steady State Max Iterations = 1
  Simulation Type = Transient
  Timestep intervals = 100
  Timestep Size = 5e-7
  Output Intervals = 1
  Timestepping Method = BDF
  BDF Order = 2
  Solver Input File = sss.sif
  Post File = sss.vtu
End

Constants
  Gravity(4) = 0 -1 0 9.82
  Stefan Boltzmann = 5.67e-08
  Permittivity of Vacuum = 8.8542e-12
  Boltzmann Constant = 1.3807e-23
  Unit Charge = 1.602e-19
End

Body 1
  Target Bodies(1) = 1
  Name = "Body 1"
  Equation = 1
  Material = 1
End

Solver 1
  Exec Solver = Always
  Equation = "Linear Elasticity"
  Variable = Displacement
  Variable Dofs = 3
  Procedure = "StressSolve" "StressSolver"
  Nonlinear System Convergence Tolerance = 1.0e-4
  Nonlinear System Max Iterations = 1
  Nonlinear System Newton After Iterations = 3
  Nonlinear System Newton After Tolerance = 1.0e-2
  Nonlinear System Relaxation Factor = 1.0
  Linear System Solver = Iterative
  Linear System Iterative Method = BiCGStab
  Linear System Max Iterations = 1000
  Linear System Convergence Tolerance = 1.0e-6
  Linear System Abort Not Converged = True
  Linear System Residual Output = 1
  Steady State Convergence Tolerance = 1.0e-5
  Linear System Preconditioning = Diagonal
  Time Derivative Order = 2
End

Equation 1
  Name = "Elasticity"
  Calculate Stresses = True
  Active Solvers(1) = 1
End

Material 1
  Name = "FromOpenFoam"
  Youngs modulus = 0.11e12
  Density = 0.897e4
  Poisson ratio = 0.33
End

Boundary Condition 1
  Target Boundaries(1) = 4
  Name = "left"
  Displacement 3 = 0
  Displacement 1 = 0
End

Boundary Condition 2
  Target Boundaries(1) = 2 
  Name = "right"
  Displacement 3 = 0
End

Boundary Condition 3
  Target Boundaries(1) = 6
  Name = "top"
  Displacement 3 = 0
End

Boundary Condition 4
  Target Boundaries(1) = 5
  Name = "bot"
  Displacement 3 = 0
End

Boundary Condition 5
  Fsi BC = True
  Target Boundaries(1) = 1 
  Name = "FSI"
!  Force 2 = -4.0e5
  Force 2 = Variable Time
    Real Procedure "LoadFunctionLibrary" "LoadYDirection"
End

Boundary Condition 6
  Target Boundaries(1) = 3
  Name = "north"
  Displacement 2 = 0
  Displacement 3 = 0
End
